[OBSERVETIME]	000:00	
[TANK]		
sjy1q	-6874.1	10
sjy2q	-2887.88	10
nanjiao	-7059.92	10
[JUNCTIONS]		
fsd_9192	29.45456025	0.3
fsd_17877	16.70504483	0.3
20	28.59791583	0.3
fsd_7243	29.48541885	0.3
fsd_16006	23.80427097	0.3
fsd_13832	23.72156731	0.3
fsd_14089	28.76241636	0.3
66	24.56561928	0.3
fsd_4298	31.4438726	0.3
fsd_4748	27.90969818	0.3
fsd_305	30.39948981	0.3
fsd_18662	9.102672545	0.3
fsd_7206	30.10612918	0.3
9	10.9832404	0.3
fsd_18619	29.67307649	0.3
fsd_12052	30.29302351	0.3
50	18.45283012	0.3
fsd_15562	28.85689262	0.3
fsd_19014	24.97864003	0.3
fsd_14765	25.06069646	0.3
[JUNDEMANDS]		
fsd_8	9.809460576	3.269820192
fsd_3	5.266645955	1.755548652
fsd_10	9.222159386	3.074053129
fsd_27	28.38783096	9.46261032
fsd_45	29.78877604	9.929592013
fsd_51	35.20469027	11.73489676
fsd_152	28.15232802	9.384109339
fsd_190	31.0111367	10.33704557
fsd_227	24.89327714	8.297759048
fsd_232	29.53535563	9.845118544
fsd_259	24.25102378	8.083674594
fsd_299	28.50722534	9.502408447
fsd_301	27.37798544	9.125995146
fsd_302	9.200904898	3.066968299
fsd_305	16.94031533	5.646771776
fsd_331	19.36730324	6.455767748
fsd_338	24.42824942	8.142749806
fsd_379	14.75318123	4.917727077
fsd_393	35.92377393	11.97459131
fsd_400	64.29844141	21.4328138
fsd_423	40.64065844	13.54688615
fsd_429	32.31196822	10.77065607
fsd_456	15.49684727	5.165615756
fsd_473	46.7055919	15.56853063
fsd_486	28.84755501	9.615851671
fsd_517	8.199805472	2.733268491
fsd_526	12.35973939	4.119913129
fsd_527	6.88946926	2.296489753
fsd_539	11.44361422	3.814538072
fsd_541	17.36755131	5.78918377
fsd_543	47.334783	15.778261
fsd_584	22.07769851	7.359232835
fsd_614	36.72042963	12.24014321
fsd_633	85.75882219	28.58627406
fsd_654	27.09278281	9.030927603
fsd_662	3.976740098	1.325580033
fsd_664	1.060752807	0.353584269
fsd_683	7.076643178	2.358881059
fsd_688	12.84268199	4.280893997
fsd_711	16.61393677	5.537978924
fsd_749	41.28062101	13.760207
fsd_844	3.357636406	1.119212135
fsd_866	2.733252012	0.911084004
fsd_871	6.888008644	2.296002881
fsd_900	11.00118881	3.667062936
fsd_948	12.46300189	4.154333965
fsd_949	9.031543508	3.010514503
fsd_974	7.513566138	2.504522046
fsd_981	6.550938128	2.183646043
fsd_986	3.631331604	1.210443868
fsd_1014	22.16606792	7.388689307
fsd_1034	16.58339373	5.527797908
fsd_1085	21.11236407	7.03745469
fsd_1167	23.78740198	7.929133994
fsd_1227	11.54103346	3.847011153
fsd_1236	22.83034143	7.61011381
fsd_1300	21.48902624	7.163008747
fsd_1301	51.70692679	17.23564226
fsd_1309	6.124594894	2.041531631
fsd_1323	17.64830348	5.882767825
fsd_1325	8.752761232	2.917587077
fsd_1348	5.658935553	1.886311851
fsd_1362	11.81136674	3.937122248
fsd_1389	13.96150161	4.653833871
fsd_1422	3.692927784	1.230975928
fsd_1425	9.891486298	3.297162099
fsd_1439	9.008986828	3.002995609
fsd_1441	10.65468005	3.551560017
fsd_1451	8.780751815	2.926917272
fsd_1456	7.532957871	2.510985957
fsd_1500	9.375449821	3.12514994
fsd_1502	10.14866192	3.382887307
fsd_1540	14.73048998	4.910163328
fsd_1580	16.74819794	5.582732648
fsd_1583	11.60813608	3.869378694
fsd_1632	3.970117677	1.323372559
fsd_1704	17.78292137	5.927640456
fsd_1740	34.62253054	11.54084351
fsd_1763	74.01871288	24.67290429
fsd_1824	60.18882598	20.06294199
fsd_1863	82.86126561	27.62042187
fsd_1945	79.51728664	26.50576221
fsd_1947	60.99281836	20.33093945
fsd_1965	11.06373125	3.687910417
fsd_1971	4.935124068	1.645041356
fsd_1985	8.982248562	2.994082854
fsd_2008	3.959024028	1.319674676
fsd_2056	5.353044432	1.784348144
fsd_2058	9.805793713	3.268597904
fsd_2069	3.950158897	1.316719632
fsd_2086	17.03263118	5.677543725
fsd_2093	16.13999355	5.379997851
fsd_2105	4.093397596	1.364465865
fsd_2152	9.289947435	3.096649145
fsd_2157	16.28537164	5.428457215
fsd_2177	10.67643554	3.558811846
fsd_2191	5.811967087	1.937322362
fsd_2244	10.80265449	3.600884829
fsd_2257	4.906520415	1.635506805
fsd_2260	8.635081317	2.878360439
fsd_2318	5.802854265	1.934284755
fsd_2352	13.01740572	4.339135239
fsd_2375	10.73037233	3.576790776
fsd_2376	11.67126453	3.890421511
fsd_2385	6.462036023	2.154012008
fsd_2393	39.8619278	13.28730927
fsd_2394	4.997902625	1.665967542
fsd_2395	4.845898642	1.615299547
fsd_2407	18.77379032	6.257930106
fsd_2582	10.64343479	3.547811596
fsd_2626	6.310646724	2.103548908
fsd_2639	7.161899748	2.387299916
fsd_2660	3.773916599	1.2579722
fsd_2692	5.513115909	1.837705303
fsd_2697	8.477727048	2.825909016
fsd_2723	5.036768892	1.678922964
fsd_2735	5.421300663	1.807100221
fsd_2748	4.214690974	1.404896991
fsd_2754	3.861924931	1.28730831
fsd_2764	7.194898699	2.398299566
fsd_2769	14.26887299	4.756290997
fsd_2774	6.812522874	2.270840958
fsd_2779	7.029171857	2.343057286
fsd_2809	12.38675365	4.128917883
fsd_2848	9.905598316	3.301866105
fsd_2864	7.991997649	2.663999216
fsd_2868	9.454804584	3.151601528
fsd_2898	3.316577915	1.105525972
fsd_2937	6.508321563	2.169440521
fsd_2969	23.35151147	7.783837155
fsd_2980	10.41904325	3.473014417
fsd_3027	6.012199818	2.004066606
fsd_3028	7.296531637	2.432177212
fsd_3036	4.012173547	1.337391182
fsd_3090	5.575885059	1.858628353
fsd_3135	5.701601825	1.900533942
fsd_3148	8.212552148	2.737517383
fsd_3180	4.845696572	1.615232191
fsd_3213	6.286129926	2.095376642
fsd_3253	3.553613048	1.184537683
fsd_3254	3.878332983	1.292777661
fsd_3279	9.909758951	3.303252984
fsd_3314	27.46554468	9.155181561
fsd_3324	22.30565425	7.435218082
fsd_3330	14.0596946	4.686564866
fsd_3332	22.03309312	7.344364373
fsd_3387	21.44315103	7.14771701
fsd_3422	4.122377737	1.374125912
fsd_3424	5.65346195	1.884487317
fsd_3430	5.815800516	1.938600172
fsd_3463	7.550497052	2.516832351
fsd_3519	3.468766893	1.156255631
fsd_3570	5.593190636	1.864396879
fsd_3605	2.478245569	0.826081856
fsd_3745	5.45363119	1.817877063
fsd_3757	6.509215133	2.169738378
fsd_3800	4.365215925	1.455071975
fsd_3838	4.920639641	1.640213214
fsd_3891	54.46491242	18.15497081
fsd_3934	7.908377524	2.636125841
fsd_3949	5.253289921	1.75109664
fsd_3951	7.635500543	2.545166848
fsd_3994	4.843200742	1.614400247
fsd_4015	3.846893008	1.282297669
fsd_4057	5.857878571	1.95262619
fsd_4075	2.452246515	0.817415505
fsd_4114	3.923444816	1.307814939
fsd_4118	4.252622637	1.417540879
fsd_4127	10.64731719	3.549105729
fsd_4151	13.14781373	4.382604577
fsd_4164	69.06759472	23.02253157
fsd_4188	5.964664431	1.988221477
fsd_4219	5.817765353	1.939255118
fsd_4245	4.890795756	1.630265252
fsd_4256	3.818627225	1.272875742
fsd_4273	10.09753042	3.365843474
fsd_4281	18.46053249	6.153510828
fsd_4298	16.56178813	5.520596043
fsd_4299	36.21733223	12.07244408
fsd_4326	47.61013779	15.87004593
fsd_4406	62.27981823	20.75993941
fsd_4425	37.75450321	12.5848344
fsd_4445	36.8686474	12.28954913
fsd_4521	6.053680985	2.017893662
fsd_4529	5.821216211	1.940405404
fsd_4543	7.876383096	2.625461032
fsd_4677	5.135298822	1.711766274
fsd_4680	3.786714922	1.262238307
fsd_4695	30.54770082	10.18256694
fsd_4711	25.25892009	8.419640029
fsd_4728	29.57981769	9.859939229
fsd_4748	78.35989318	26.11996439
fsd_4765	88.17842419	29.39280806
fsd_4916	10.89307082	3.631023606
fsd_4928	15.82712542	5.275708475
fsd_4983	33.95221266	11.31740422
fsd_5083	12.84036479	4.280121598
fsd_5145	27.62021863	9.206739545
fsd_5210	14.97032923	4.990109745
fsd_5235	15.38086597	5.126955322
fsd_5320	19.67010708	6.556702361
fsd_5378	5.084036752	1.694678917
fsd_5533	30.58427896	10.19475965
fsd_5590	16.37492218	5.458307394
fsd_5614	57.68240669	19.2274689
fsd_5702	32.0168266	10.67227553
fsd_5830	7.229757179	2.40991906
fsd_5922	42.11914544	14.03971515
fsd_6039	31.58301415	10.52767138
fsd_6049	16.33839255	5.446130848
fsd_6099	42.10847859	14.03615953
fsd_6184	17.81593159	5.938643863
fsd_6220	41.08626331	13.6954211
fsd_6317	52.10442316	17.36814105
fsd_6359	57.49191965	19.16397322
fsd_6381	6.556313286	2.185437762
fsd_6686	54.92586483	18.30862161
fsd_6722	68.29352937	22.76450979
fsd_6737	9.007729597	3.002576532
fsd_6787	5.540215754	1.846738585
fsd_6792	7.813915335	2.604638445
fsd_6799	14.28054393	4.760181311
fsd_6804	3.565742035	1.188580678
fsd_6842	4.804649974	1.601549991
fsd_6863	6.415020924	2.138340308
fsd_6903	11.03817246	3.679390822
fsd_6936	4.075121826	1.358373942
fsd_6995	24.25431265	8.084770884
fsd_7071	6.37277927	2.124259757
fsd_7104	5.784853843	1.928284614
fsd_7140	2.759022255	0.919674085
fsd_7152	4.104819256	1.368273085
fsd_7206	3.494315284	1.164771761
fsd_7209	10.82518427	3.608394757
fsd_7243	184.3577088	30
fsd_7277	12.06404466	4.02134822
fsd_7292	16.84706644	5.615688812
fsd_7328	2.603035345	0.867678448
fsd_7400	21.87416712	7.291389041
fsd_7407	12.76266391	4.254221302
fsd_7441	8.622946802	2.874315601
fsd_7565	49.83369749	16.6112325
fsd_11888	5.654503199	1.8848344
fsd_8342	212.98	70.99333333
fsd_8356	48.22885828	16.07628609
fsd_17877	9.95491999	3.318306663
fsd_8653	16.3024567	5.434152232
fsd_17284	15.67322115	5.22440705
fsd_8791	5.341847347	1.780615782
fsd_8883	8.578553166	2.859517722
fsd_8889	39.05976204	13.01992068
fsd_8957	219.43	73.14333333
fsd_9315	3.450914993	1.150304998
fsd_18657	21.20873693	7.069578978
fsd_18662	39.62241667	13.20747222
fsd_18088	15.72486999	5.241623331
fsd_9373	75.71798065	25.23932688
fsd_9192	7.335179624	2.445059875
fsd_9457	5.677948511	1.892649504
fsd_9467	6.699613658	2.233204553
fsd_9507	6.34142762	2.113809207
fsd_9630	63.36875275	21.12291758
fsd_18693	6.528962095	2.176320698
fsd_18707	10.48802439	3.496008129
fsd_17826	14.9133641	4.971121368
fsd_10155	15.54594085	5.181980284
fsd_10440	30.47186014	10.15728671
fsd_10649	33.94272148	11.31424049
fsd_10674	56.44898773	18.81632924
fsd_18429	2.481019869	0.827006623
fsd_10860	14.09528711	4.698429037
fsd_17499	85.52859091	28.5095303
fsd_11550	13.89083195	4.630277316
fsd_11627	42.24134731	14.0804491
fsd_11717	6.300235666	2.100078555
fsd_11689	21.15668171	7.052227236
fsd_11980	36.07471298	12.02490433
fsd_11992	5.639487881	1.879829294
fsd_11699	16.5535097	5.517836568
fsd_11760	33.98667724	11.32889241
fsd_12031	60.61155912	20.20385304
fsd_12063	15.54021685	5.180072283
fsd_12071	13.32278665	4.440928885
fsd_12096	21.16963516	7.056545054
fsd_11739	4.449318812	1.483106271
fsd_12122	12.71525676	4.238418919
fsd_12052	19.93994267	6.646647558
fsd_12223	5.570154705	1.856718235
fsd_12303	29.59827635	9.866092118
fsd_12314	13.15829238	4.38609746
fsd_12362	32.18911429	10.72970476
fsd_12413	106.7852618	35.59508728
fsd_12430	40.27682626	13.42560875
fsd_12515	5.194836431	1.731612144
fsd_12605	48.56772823	16.18924274
fsd_12646	5.104175446	1.701391815
fsd_12683	4.322942853	1.440980951
fsd_12785	7.201794253	2.400598084
fsd_12814	5.289460001	1.763153334
fsd_12835	10.53508913	3.511696378
fsd_13062	13.17061195	4.390203983
fsd_13065	10.45152676	3.483842253
fsd_13197	28.80358538	9.601195127
fsd_13224	28.99633308	9.66544436
fsd_13061	9.19339959	3.06446653
fsd_13327	6.403306951	2.13443565
fsd_13406	123.7987691	41.26625635
fsd_13544	86.18305674	28.72768558
fsd_13606	3.638986734	1.212995578
fsd_13768	9.886293455	3.295431152
fsd_13832	70.1021766	23.3673922
fsd_13870	6.003849997	2.001283332
fsd_13046	10.90124049	3.633746829
fsd_18750	22.68758715	7.562529051
fsd_13337	11.3203745	3.773458166
fsd_13951	56.03624543	18.67874848
fsd_18805	157.2026158	26
fsd_14089	8.252368224	2.750789408
fsd_14133	17.81234893	5.937449643
fsd_14148	67.64943044	22.54981015
fsd_14316	55.80708972	18.60236324
fsd_18713	21.79144288	7.263814294
fsd_14022	38.66389976	12.88796659
fsd_14008	5.602362908	1.867454303
fsd_18729	52.22643849	17.40881283
fsd_14419	49.71474919	16.57158306
fsd_14420	81.36911192	27.12303731
fsd_16766	10.37639319	3.45879773
fsd_14530	119.0459571	39.68198569
fsd_14313	25.04083003	8.346943343
fsd_18771	59.17066734	19.72355578
fsd_16477	6.475074718	2.158358239
fsd_14694	5.846347405	1.948782468
fsd_14397	8.877511997	2.959170666
fsd_14704	103.1393131	34.37977105
fsd_18619	5.143125354	1.714375118
fsd_18632	6.10513661	2.035045537
fsd_14742	62.16962557	20.72320852
fsd_14930	91.23403561	30.4113452
fsd_14765	67.87385421	22.62461807
fsd_15188	7.666870781	2.555623594
fsd_15204	67.5314975	22.51049917
fsd_14945	6.70395757	2.234652523
fsd_15293	43.98011642	14.66003881
fsd_15359	10.8220869	3.607362299
fsd_15405	78.4957316	26.16524387
fsd_15482	129.5537551	43.18458502
fsd_15562	3.635786564	1.211928855
fsd_15616	7.284039143	2.428013048
fsd_15617	10.3009409	3.433646966
fsd_15644	32.86262145	10.95420715
fsd_15656	4.867946064	1.622648688
fsd_15667	19.97719821	6.659066071
fsd_15704	55.34685382	18.44895127
fsd_15727	49.22495551	16.4083185
fsd_15783	4.270969784	1.423656595
fsd_15833	62.72786272	20.90928757
fsd_15845	7.805153843	2.601717948
fsd_15654	10.61997643	3.539992145
fsd_15889	32.88019922	10.96006641
fsd_15948	14.85383963	4.951279877
fsd_15600	28.76496755	9.588322515
fsd_16020	20.29108394	6.763694645
fsd_16082	49.018344	16.339448
fsd_16117	6.32818728	2.10939576
fsd_16006	21.16726959	7.05575653
fsd_16210	7.212188811	2.404062937
fsd_16248	5.990009303	1.996669768
fsd_16322	4.44732749	1.482442497
fsd_16395	4.97888114	1.659627047
fsd_16086	98.79320448	32.93106816
fsd_16162	4.493794522	1.497931507
fsd_16432	16.56266386	5.520887952
fsd_16440	19.5909743	6.530324766
fsd_16455	5.4092586	1.8030862
fsd_16526	18.8294369	6.276478968
fsd_16566	4.404530107	1.468176702
fsd_16596	5.643658958	1.881219653
fsd_16626	4.480866661	1.49362222
fsd_16684	4.611939912	1.537313304
fsd_16701	96.44826279	32.14942093
fsd_16742	90.12461657	30.04153886
fsd_16756	30.09454456	10.03151485
fsd_16897	136.1464393	45.38214644
fsd_16925	83.44896974	27.81632325
fsd_16953	72.8485507	24.28285023
fsd_17026	94.66511281	31.5550376
fsd_17074	36.36344112	12.12114704
fsd_17081	87.34999599	29.11666533
fsd_17092	90.61025219	30.2034174
fsd_17107	21.76295984	7.254319947
fsd_17108	5.964385646	1.988128549
fsd_17121	56.76667154	18.92222385
fsd_17175	96.15151899	32.05050633
fsd_17191	68.1861445	22.72871483
fsd_17241	7.061412177	2.353804059
fsd_17294	45.234531	15.078177
fsd_17338	26.60004378	8.86668126
fsd_17376	27.67134565	9.223781885
fsd_17323	51.05349506	17.01783169
fsd_17352	137.9113509	22
fsd_17404	107.9204939	35.97349796
fsd_17416	53.54265144	17.84755048
fsd_17459	102.195154	34.06505132
fsd_17587	18.3693545	6.123118166
fsd_17597	35.74315681	11.9143856
fsd_17726	138.9653958	46.32179861
fsd_17769	39.97380014	13.32460005
fsd_17926	66.73674148	22.24558049
fsd_18058	108.221142	36.073714
fsd_18062	53.5662741	17.8554247
fsd_18090	4.135271314	1.378423771
fsd_18117	5.764284864	1.921428288
fsd_18130	3.58373155	1.194577183
fsd_18154	6.894241634	2.298080545
fsd_18228	7.378591736	2.459530579
fsd_18235	4.697980521	1.565993507
fsd_18316	5.97995516	1.993318387
fsd_18360	4.465209202	1.488403067
fsd_18528	36.81270031	12.2709001
fsd_18561	17.96158028	5.987193425
fsd_18887	75.91985508	25.30661836
fsd_18924	170.2634026	28
fsd_19014	65.67071305	21.89023768
fsd_19107	203.8094724	67.93649079
fsd_19229	28.18635656	9.395452186
fsd_19316	94.33928181	31.44642727
fsd_19330	33.72406608	11.24135536
fsd_19343	21.04348817	7.014496056
fsd_19346	20.39697897	6.798992991
fsd_19387	121.2721807	40.42406025
fsd_19462	11.10465855	3.701552851
fsd_19593	104.7366014	34.91220047
fsd_19686	71.81265439	23.93755146
fsd_19711	78.49702778	26.16567593
fsd_19757	23.47727445	7.825758149
fsd_19927	14.06556537	4.68852179
fsd_19808	165.1769525	28
fsd_20034	158.1357042	26
fsd_20157	175.7794952	30
fsd_20269	78.77563387	26.25854462
fsd_20181	147.8067366	25
fsd_20235	130.0597214	43.35324048
fsd_20211	84.8244383	28.27481277
fsd_20222	58.29044031	19.43014677
fsd_20318	96.89206504	32.29735501
zhnl	2.397589587	0.799196529
sblqx	117.1227265	39.04090884
wglk	39.23568089	13.0785603
ddy	36.09658895	12.03219632
zhdlqb	44.42125446	14.80708482
zhdlqn	47.1243588	15.7081196
wjhy	20.60776799	6.869255997
8	61.19800845	20.39933615
9	82.48952028	27.49650676
16	51.47095103	17.15698368
17	211.2273043	35
18	74.99909782	24.99969927
19	4.363327614	1.454442538
20	7.73228717	2.577429057
23	59.83596479	19.9453216
24	3.399560639	1.13318688
25	4.244669759	1.41488992
26	4.135359564	1.378453188
27	3.19728297	1.06576099
28	3.199859538	1.066619846
29	8.05703618	2.685678727
42	169.5916785	25
43	75.10098894	25.03366298
44	192.6365503	30
45	91.79059797	30.59686599
46	171.6449743	25
47	148.5724372	25
48	88.51093978	29.50364659
49	144.4049573	48.13498578
50	11.30537737	3.768459124
55	12.24339767	4.081132557
56	75.67712839	25.22570946
57	82.52026466	27.50675489
58	34.12994503	11.37664834
59	153.5447915	51.18159718
60	19.72056436	6.573521455
61	15.50781051	5.16927017
40	163.0903127	27
41	109.3179301	36.43931004
66	46.20675254	15.40225085
67	10.70153235	3.567177451
68	54.65971624	18.21990541
69	418.4293581	139.4764527
70	121.6813635	40.5604545
71	131.1536679	43.7178893