[OBSERVETIME]	000:00	
[TANK]		
sjy1q	-6874.1	10
sjy2q	-2887.88	10
nanjiao	-7059.92	10
[JUNCTIONS]		
fsd_9192	29.45456025	0.3
fsd_17877	16.70504483	0.3
20	28.59791583	0.3
fsd_7243	29.48541885	0.3
fsd_16006	23.80427097	0.3
fsd_13832	23.72156731	0.3
fsd_14089	28.76241636	0.3
66	24.56561928	0.3
fsd_4298	31.4438726	0.3
fsd_4748	27.90969818	0.3
fsd_305	30.39948981	0.3
fsd_18662	9.102672545	0.3
fsd_7206	30.10612918	0.3
9	10.9832404	0.3
fsd_18619	29.67307649	0.3
fsd_12052	30.29302351	0.3
50	18.45283012	0.3
fsd_15562	28.85689262	0.3
fsd_19014	24.97864003	0.3
fsd_14765	25.06069646	0.3
[JUNDEMANDS]		
fsd_8	9.809460576	49.04730288
fsd_3	5.266645955	26.33322977
fsd_10	9.222159386	46.11079693
fsd_27	28.38783096	141.9391548
fsd_45	29.78877604	148.9438802
fsd_51	35.20469027	176.0234513
fsd_152	28.15232802	140.7616401
fsd_190	31.0111367	155.0556835
fsd_227	24.89327714	124.4663857
fsd_232	29.53535563	147.6767782
fsd_259	24.25102378	121.2551189
fsd_299	28.50722534	142.5361267
fsd_301	27.37798544	136.8899272
fsd_302	9.200904898	46.00452449
fsd_305	16.94031533	84.70157663
fsd_331	19.36730324	96.83651622
fsd_338	24.42824942	122.1412471
fsd_379	14.75318123	73.76590616
fsd_393	35.92377393	179.6188697
fsd_400	64.29844141	321.4922071
fsd_423	40.64065844	203.2032922
fsd_429	32.31196822	161.5598411
fsd_456	15.49684727	77.48423634
fsd_473	46.7055919	233.5279595
fsd_486	28.84755501	144.2377751
fsd_517	8.199805472	40.99902736
fsd_526	12.35973939	61.79869693
fsd_527	6.88946926	34.4473463
fsd_539	11.44361422	57.21807108
fsd_541	17.36755131	86.83775655
fsd_543	47.334783	236.673915
fsd_584	22.07769851	110.3884925
fsd_614	36.72042963	183.6021481
fsd_633	85.75882219	428.7941109
fsd_654	27.09278281	135.463914
fsd_662	3.976740098	19.88370049
fsd_664	1.060752807	5.303764033
fsd_683	7.076643178	35.38321589
fsd_688	12.84268199	64.21340995
fsd_711	16.61393677	83.06968385
fsd_749	41.28062101	206.403105
fsd_844	3.357636406	16.78818203
fsd_866	2.733252012	13.66626006
fsd_871	6.888008644	34.44004322
fsd_900	11.00118881	55.00594404
fsd_948	12.46300189	62.31500947
fsd_949	9.031543508	45.15771754
fsd_974	7.513566138	37.56783069
fsd_981	6.550938128	32.75469064
fsd_986	3.631331604	18.15665802
fsd_1014	22.16606792	110.8303396
fsd_1034	16.58339373	82.91696863
fsd_1085	21.11236407	105.5618203
fsd_1167	23.78740198	118.9370099
fsd_1227	11.54103346	57.70516729
fsd_1236	22.83034143	114.1517071
fsd_1300	21.48902624	107.4451312
fsd_1301	51.70692679	258.5346339
fsd_1309	6.124594894	30.62297447
fsd_1323	17.64830348	88.24151738
fsd_1325	8.752761232	43.76380616
fsd_1348	5.658935553	28.29467776
fsd_1362	11.81136674	59.05683371
fsd_1389	13.96150161	69.80750807
fsd_1422	3.692927784	18.46463892
fsd_1425	9.891486298	49.45743149
fsd_1439	9.008986828	45.04493414
fsd_1441	10.65468005	53.27340025
fsd_1451	8.780751815	43.90375908
fsd_1456	7.532957871	37.66478935
fsd_1500	9.375449821	46.8772491
fsd_1502	10.14866192	50.7433096
fsd_1540	14.73048998	73.65244992
fsd_1580	16.74819794	83.74098972
fsd_1583	11.60813608	58.04068042
fsd_1632	3.970117677	19.85058839
fsd_1704	17.78292137	88.91460683
fsd_1740	34.62253054	173.1126527
fsd_1763	74.01871288	370.0935644
fsd_1824	60.18882598	300.9441299
fsd_1863	82.86126561	414.306328
fsd_1945	79.51728664	397.5864332
fsd_1947	60.99281836	304.9640918
fsd_1965	11.06373125	55.31865625
fsd_1971	4.935124068	24.67562034
fsd_1985	8.982248562	44.91124281
fsd_2008	3.959024028	19.79512014
fsd_2056	5.353044432	26.76522216
fsd_2058	9.805793713	49.02896856
fsd_2069	3.950158897	19.75079449
fsd_2086	17.03263118	85.16315588
fsd_2093	16.13999355	80.69996777
fsd_2105	4.093397596	20.46698798
fsd_2152	9.289947435	46.44973718
fsd_2157	16.28537164	81.42685822
fsd_2177	10.67643554	53.38217769
fsd_2191	5.811967087	29.05983544
fsd_2244	10.80265449	54.01327243
fsd_2257	4.906520415	24.53260208
fsd_2260	8.635081317	43.17540658
fsd_2318	5.802854265	29.01427132
fsd_2352	13.01740572	65.08702859
fsd_2375	10.73037233	53.65186164
fsd_2376	11.67126453	58.35632267
fsd_2385	6.462036023	32.31018012
fsd_2393	39.8619278	199.309639
fsd_2394	4.997902625	24.98951312
fsd_2395	4.845898642	24.22949321
fsd_2407	18.77379032	93.86895159
fsd_2582	10.64343479	53.21717394
fsd_2626	6.310646724	31.55323362
fsd_2639	7.161899748	35.80949874
fsd_2660	3.773916599	18.86958299
fsd_2692	5.513115909	27.56557954
fsd_2697	8.477727048	42.38863524
fsd_2723	5.036768892	25.18384446
fsd_2735	5.421300663	27.10650331
fsd_2748	4.214690974	21.07345487
fsd_2754	3.861924931	19.30962465
fsd_2764	7.194898699	35.9744935
fsd_2769	14.26887299	71.34436496
fsd_2774	6.812522874	34.06261437
fsd_2779	7.029171857	35.14585929
fsd_2809	12.38675365	61.93376824
fsd_2848	9.905598316	49.52799158
fsd_2864	7.991997649	39.95998824
fsd_2868	9.454804584	47.27402292
fsd_2898	3.316577915	16.58288958
fsd_2937	6.508321563	32.54160782
fsd_2969	23.35151147	116.7575573
fsd_2980	10.41904325	52.09521625
fsd_3027	6.012199818	30.06099909
fsd_3028	7.296531637	36.48265819
fsd_3036	4.012173547	20.06086774
fsd_3090	5.575885059	27.87942529
fsd_3135	5.701601825	28.50800913
fsd_3148	8.212552148	41.06276074
fsd_3180	4.845696572	24.22848286
fsd_3213	6.286129926	31.43064963
fsd_3253	3.553613048	17.76806524
fsd_3254	3.878332983	19.39166491
fsd_3279	9.909758951	49.54879476
fsd_3314	27.46554468	137.3277234
fsd_3324	22.30565425	111.5282712
fsd_3330	14.0596946	70.29847299
fsd_3332	22.03309312	110.1654656
fsd_3387	21.44315103	107.2157551
fsd_3422	4.122377737	20.61188868
fsd_3424	5.65346195	28.26730975
fsd_3430	5.815800516	29.07900258
fsd_3463	7.550497052	37.75248526
fsd_3519	3.468766893	17.34383446
fsd_3570	5.593190636	27.96595318
fsd_3605	2.478245569	12.39122784
fsd_3745	5.45363119	27.26815595
fsd_3757	6.509215133	32.54607566
fsd_3800	4.365215925	21.82607962
fsd_3838	4.920639641	24.60319821
fsd_3891	54.46491242	272.3245621
fsd_3934	7.908377524	39.54188762
fsd_3949	5.253289921	26.2664496
fsd_3951	7.635500543	38.17750271
fsd_3994	4.843200742	24.21600371
fsd_4015	3.846893008	19.23446504
fsd_4057	5.857878571	29.28939286
fsd_4075	2.452246515	12.26123257
fsd_4114	3.923444816	19.61722408
fsd_4118	4.252622637	21.26311318
fsd_4127	10.64731719	53.23658594
fsd_4151	13.14781373	65.73906866
fsd_4164	69.06759472	345.3379736
fsd_4188	5.964664431	29.82332216
fsd_4219	5.817765353	29.08882677
fsd_4245	4.890795756	24.45397878
fsd_4256	3.818627225	19.09313612
fsd_4273	10.09753042	50.48765211
fsd_4281	18.46053249	92.30266243
fsd_4298	16.56178813	82.80894065
fsd_4299	36.21733223	181.0866611
fsd_4326	47.61013779	238.050689
fsd_4406	62.27981823	311.3990912
fsd_4425	37.75450321	188.7725161
fsd_4445	36.8686474	184.343237
fsd_4521	6.053680985	30.26840493
fsd_4529	5.821216211	29.10608106
fsd_4543	7.876383096	39.38191548
fsd_4677	5.135298822	25.67649411
fsd_4680	3.786714922	18.93357461
fsd_4695	30.54770082	152.7385041
fsd_4711	25.25892009	126.2946004
fsd_4728	29.57981769	147.8990884
fsd_4748	78.35989318	391.7994659
fsd_4765	88.17842419	440.8921209
fsd_4916	10.89307082	54.46535409
fsd_4928	15.82712542	79.13562712
fsd_4983	33.95221266	169.7610633
fsd_5083	12.84036479	64.20182397
fsd_5145	27.62021863	138.1010932
fsd_5210	14.97032923	74.85164617
fsd_5235	15.38086597	76.90432983
fsd_5320	19.67010708	98.35053542
fsd_5378	5.084036752	25.42018376
fsd_5533	30.58427896	152.9213948
fsd_5590	16.37492218	81.87461091
fsd_5614	57.68240669	288.4120335
fsd_5702	32.0168266	160.084133
fsd_5830	7.229757179	36.1487859
fsd_5922	42.11914544	210.5957272
fsd_6039	31.58301415	157.9150708
fsd_6049	16.33839255	81.69196273
fsd_6099	42.10847859	210.542393
fsd_6184	17.81593159	89.07965794
fsd_6220	41.08626331	205.4313165
fsd_6317	52.10442316	260.5221158
fsd_6359	57.49191965	287.4595983
fsd_6381	6.556313286	32.78156643
fsd_6686	54.92586483	274.6293241
fsd_6722	68.29352937	341.4676469
fsd_6737	9.007729597	45.03864799
fsd_6787	5.540215754	27.70107877
fsd_6792	7.813915335	39.06957667
fsd_6799	14.28054393	71.40271966
fsd_6804	3.565742035	17.82871018
fsd_6842	4.804649974	24.02324987
fsd_6863	6.415020924	32.07510462
fsd_6903	11.03817246	55.19086232
fsd_6936	4.075121826	20.37560913
fsd_6995	24.25431265	121.2715633
fsd_7071	6.37277927	31.86389635
fsd_7104	5.784853843	28.92426922
fsd_7140	2.759022255	13.79511127
fsd_7152	4.104819256	20.52409628
fsd_7206	3.494315284	17.47157642
fsd_7209	10.82518427	54.12592135
fsd_7243	184.3577088	921.7885438
fsd_7277	12.06404466	60.3202233
fsd_7292	16.84706644	84.23533218
fsd_7328	2.603035345	13.01517672
fsd_7400	21.87416712	109.3708356
fsd_7407	12.76266391	63.81331953
fsd_7441	8.622946802	43.11473401
fsd_7565	49.83369749	249.1684875
fsd_11888	5.654503199	28.272516
fsd_8342	313.1205013	1565.602506
fsd_8356	48.22885828	241.1442914
fsd_17877	9.95491999	49.77459995
fsd_8653	16.3024567	81.51228348
fsd_17284	15.67322115	78.36610575
fsd_8791	5.341847347	26.70923674
fsd_8883	8.578553166	42.89276583
fsd_8889	39.05976204	195.2988102
fsd_8957	361.3338285	1806.669142
fsd_9315	3.450914993	17.25457497
fsd_18657	21.20873693	106.0436847
fsd_18662	39.62241667	198.1120834
fsd_18088	15.72486999	78.62434997
fsd_9373	75.71798065	378.5899033
fsd_9192	7.335179624	36.67589812
fsd_9457	5.677948511	28.38974255
fsd_9467	6.699613658	33.49806829
fsd_9507	6.34142762	31.7071381
fsd_9630	63.36875275	316.8437637
fsd_18693	6.528962095	32.64481047
fsd_18707	10.48802439	52.44012194
fsd_17826	14.9133641	74.56682052
fsd_10155	15.54594085	77.72970426
fsd_10440	30.47186014	152.3593007
fsd_10649	33.94272148	169.7136074
fsd_10674	56.44898773	282.2449386
fsd_18429	2.481019869	12.40509935
fsd_10860	14.09528711	70.47643556
fsd_17499	85.52859091	427.6429546
fsd_11550	13.89083195	69.45415973
fsd_11627	42.24134731	211.2067366
fsd_11717	6.300235666	31.50117833
fsd_11689	21.15668171	105.7834085
fsd_11980	36.07471298	180.3735649
fsd_11992	5.639487881	28.1974394
fsd_11699	16.5535097	82.76754852
fsd_11760	33.98667724	169.9333862
fsd_12031	60.61155912	303.0577956
fsd_12063	15.54021685	77.70108424
fsd_12071	13.32278665	66.61393327
fsd_12096	21.16963516	105.8481758
fsd_11739	4.449318812	22.24659406
fsd_12122	12.71525676	63.57628378
fsd_12052	19.93994267	99.69971337
fsd_12223	5.570154705	27.85077352
fsd_12303	29.59827635	147.9913818
fsd_12314	13.15829238	65.7914619
fsd_12362	32.18911429	160.9455715
fsd_12413	106.7852618	533.9263092
fsd_12430	40.27682626	201.3841313
fsd_12515	5.194836431	25.97418215
fsd_12605	48.56772823	242.8386411
fsd_12646	5.104175446	25.52087723
fsd_12683	4.322942853	21.61471426
fsd_12785	7.201794253	36.00897127
fsd_12814	5.289460001	26.44730001
fsd_12835	10.53508913	52.67544567
fsd_13062	13.17061195	65.85305975
fsd_13065	10.45152676	52.2576338
fsd_13197	28.80358538	144.0179269
fsd_13224	28.99633308	144.9816654
fsd_13061	9.19339959	45.96699795
fsd_13327	6.403306951	32.01653475
fsd_13406	123.7987691	618.9938453
fsd_13544	86.18305674	430.9152837
fsd_13606	3.638986734	18.19493367
fsd_13768	9.886293455	49.43146728
fsd_13832	70.1021766	350.510883
fsd_13870	6.003849997	30.01924998
fsd_13046	10.90124049	54.50620243
fsd_18750	22.68758715	113.4379358
fsd_13337	11.3203745	56.60187249
fsd_13951	56.03624543	280.1812272
fsd_18805	157.2026158	786.0130789
fsd_14089	8.252368224	41.26184112
fsd_14133	17.81234893	89.06174465
fsd_14148	67.64943044	338.2471522
fsd_14316	55.80708972	279.0354486
fsd_18713	21.79144288	108.9572144
fsd_14022	38.66389976	193.3194988
fsd_14008	5.602362908	28.01181454
fsd_18729	52.22643849	261.1321925
fsd_14419	49.71474919	248.573746
fsd_14420	81.36911192	406.8455596
fsd_16766	10.37639319	51.88196595
fsd_14530	119.0459571	595.2297854
fsd_14313	25.04083003	125.2041501
fsd_18771	59.17066734	295.8533367
fsd_16477	6.475074718	32.37537359
fsd_14694	5.846347405	29.23173703
fsd_14397	8.877511997	44.38755999
fsd_14704	103.1393131	515.6965657
fsd_18619	5.143125354	25.71562677
fsd_18632	6.10513661	30.52568305
fsd_14742	62.16962557	310.8481279
fsd_14930	91.23403561	456.170178
fsd_14765	67.87385421	339.3692711
fsd_15188	7.666870781	38.33435391
fsd_15204	67.5314975	337.6574875
fsd_14945	6.70395757	33.51978785
fsd_15293	43.98011642	219.9005821
fsd_15359	10.8220869	54.11043448
fsd_15405	78.4957316	392.478658
fsd_15482	129.5537551	647.7687753
fsd_15562	3.635786564	18.17893282
fsd_15616	7.284039143	36.42019572
fsd_15617	10.3009409	51.50470449
fsd_15644	32.86262145	164.3131072
fsd_15656	4.867946064	24.33973032
fsd_15667	19.97719821	99.88599106
fsd_15704	55.34685382	276.7342691
fsd_15727	49.22495551	246.1247775
fsd_15783	4.270969784	21.35484892
fsd_15833	62.72786272	313.6393136
fsd_15845	7.805153843	39.02576921
fsd_15654	10.61997643	53.09988217
fsd_15889	32.88019922	164.4009961
fsd_15948	14.85383963	74.26919816
fsd_15600	28.76496755	143.8248377
fsd_16020	20.29108394	101.4554197
fsd_16082	49.018344	245.09172
fsd_16117	6.32818728	31.6409364
fsd_16006	21.16726959	105.8363479
fsd_16210	7.212188811	36.06094405
fsd_16248	5.990009303	29.95004652
fsd_16322	4.44732749	22.23663745
fsd_16395	4.97888114	24.8944057
fsd_16086	98.79320448	493.9660224
fsd_16162	4.493794522	22.46897261
fsd_16432	16.56266386	82.81331928
fsd_16440	19.5909743	97.95487149
fsd_16455	5.4092586	27.046293
fsd_16526	18.8294369	94.14718452
fsd_16566	4.404530107	22.02265054
fsd_16596	5.643658958	28.21829479
fsd_16626	4.480866661	22.4043333
fsd_16684	4.611939912	23.05969956
fsd_16701	96.44826279	482.2413139
fsd_16742	90.12461657	450.6230829
fsd_16756	30.09454456	150.4727228
fsd_16897	136.1464393	680.7321966
fsd_16925	33.44896974	167.2448487
fsd_16953	72.8485507	364.2427535
fsd_17026	94.66511281	473.3255641
fsd_17074	36.36344112	181.8172056
fsd_17081	87.34999599	436.7499799
fsd_17092	90.61025219	453.0512609
fsd_17107	21.76295984	108.8147992
fsd_17108	5.964385646	29.82192823
fsd_17121	56.76667154	283.8333577
fsd_17175	96.15151899	480.757595
fsd_17191	68.1861445	340.9307225
fsd_17241	7.061412177	35.30706089
fsd_17294	45.234531	226.172655
fsd_17338	26.60004378	133.0002189
fsd_17376	27.67134565	138.3567283
fsd_17323	51.05349506	255.2674753
fsd_17352	137.9113509	689.5567547
fsd_17404	107.9204939	539.6024694
fsd_17416	53.54265144	267.7132572
fsd_17459	102.195154	510.9757699
fsd_17587	18.3693545	91.84677249
fsd_17597	35.74315681	178.715784
fsd_17726	138.9653958	694.8269792
fsd_17769	39.97380014	199.8690007
fsd_17926	66.73674148	333.6837074
fsd_18058	108.221142	541.1057101
fsd_18062	53.5662741	267.8313705
fsd_18090	4.135271314	20.67635657
fsd_18117	5.764284864	28.82142432
fsd_18130	3.58373155	17.91865775
fsd_18154	6.894241634	34.47120817
fsd_18228	7.378591736	36.89295868
fsd_18235	4.697980521	23.4899026
fsd_18316	5.97995516	29.8997758
fsd_18360	4.465209202	22.32604601
fsd_18528	36.81270031	184.0635016
fsd_18561	17.96158028	89.80790138
fsd_18887	75.91985508	379.5992754
fsd_18924	170.2634026	851.3170131
fsd_19014	65.67071305	328.3535652
fsd_19107	203.8094724	1019.047362
fsd_19229	28.18635656	140.9317828
fsd_19316	94.33928181	471.6964091
fsd_19330	33.72406608	168.6203304
fsd_19343	21.04348817	105.2174408
fsd_19346	20.39697897	101.9848949
fsd_19387	121.2721807	606.3609037
fsd_19462	11.10465855	55.52329276
fsd_19593	104.7366014	523.683007
fsd_19686	71.81265439	359.0632719
fsd_19711	78.49702778	392.4851389
fsd_19757	23.47727445	117.3863722
fsd_19927	14.06556537	70.32782685
fsd_19808	165.1769525	825.8847627
fsd_20034	158.1357042	790.6785209
fsd_20157	175.7794952	878.8974759
fsd_20269	78.77563387	393.8781694
fsd_20181	147.8067366	739.0336832
fsd_20235	130.0597214	650.2986072
fsd_20211	84.8244383	424.1221915
fsd_20222	58.29044031	291.4522016
fsd_20318	96.89206504	484.4603252
zhnl	2.397589587	11.98794793
sblqx	117.1227265	585.6136325
wglk	39.23568089	196.1784045
ddy	36.09658895	180.4829448
zhdlqb	44.42125446	222.1062723
zhdlqn	47.1243588	235.621794
wjhy	20.60776799	103.03884
8	61.19800845	305.9900423
9	82.48952028	412.4476014
16	51.47095103	257.3547552
17	211.2273043	1056.136521
18	74.99909782	374.9954891
19	4.363327614	21.81663807
20	7.73228717	38.66143585
23	59.83596479	299.179824
24	3.399560639	16.9978032
25	4.244669759	21.22334879
26	4.135359564	20.67679782
27	3.19728297	15.98641485
28	3.199859538	15.99929769
29	8.05703618	40.2851809
42	169.5916785	847.9583927
43	75.10098894	375.5049447
44	192.6365503	963.1827516
45	91.79059797	458.9529899
46	171.6449743	858.2248713
47	148.5724372	742.862186
48	88.51093978	442.5546989
49	144.4049573	722.0247867
50	11.30537737	56.52688687
55	12.24339767	61.21698835
56	75.67712839	378.385642
57	82.52026466	412.6013233
58	34.12994503	170.6497251
59	58.54479154	292.7239577
60	19.72056436	98.60282182
61	15.50781051	77.53905255
40	163.0903127	815.4515636
41	109.3179301	546.5896506
66	46.20675254	231.0337627
67	10.70153235	53.50766176
68	54.65971624	273.2985812
69	418.4293581	2092.14679
70	121.6813635	608.4068175
71	131.1536679	655.7683394