[TITLE]
ÖĞÎÄ 

[JUNCTIONS]
 fsd_8                                 3.0000
 fsd_3                                 3.0000
 fsd_10                                3.0000
 fsd_27                                3.0000
 fsd_45                                3.0000
 fsd_51                                3.0000
 fsd_152                               3.0000
 fsd_190                               3.0000
 fsd_227                               3.0000
 fsd_232                               3.0000
 fsd_259                               3.0000
 fsd_299                               3.0000
 fsd_301                               3.0000
 fsd_302                               3.0000
 fsd_305                               3.0000
 fsd_331                               3.0000
 fsd_338                               3.0000
 fsd_379                               3.0000
 fsd_393                               3.0000
 fsd_400                               3.0000
 fsd_423                               3.0000
 fsd_429                               3.0000
 fsd_456                               3.0000
 fsd_473                               3.0000
 fsd_486                               3.0000
 fsd_517                               3.0000
 fsd_526                               3.0000
 fsd_527                               3.0000
 fsd_539                               3.0000
 fsd_541                               3.0000
 fsd_543                               3.0000
 fsd_584                               3.0000
 fsd_614                               3.0000
 fsd_633                               3.0000
 fsd_654                               3.0000
 fsd_662                               3.0000
 fsd_664                               3.0000
 fsd_683                               3.0000
 fsd_688                               3.0000
 fsd_711                               3.0000
 fsd_749                               3.0000
 fsd_844                               3.0000
 fsd_866                               3.0000
 fsd_871                               3.0000
 fsd_900                               3.0000
 fsd_948                               3.0000
 fsd_949                               3.0000
 fsd_974                               3.0000
 fsd_981                               3.0000
 fsd_986                               3.0000
 fsd_1014                              3.0000
 fsd_1034                              3.0000
 fsd_1085                              3.0000
 fsd_1167                              3.0000
 fsd_1227                              3.0000
 fsd_1236                              3.0000
 fsd_1300                              3.0000
 fsd_1301                              3.0000
 fsd_1309                              3.0000
 fsd_1323                              3.0000
 fsd_1325                              3.0000
 fsd_1348                              3.0000
 fsd_1362                              3.0000
 fsd_1389                              3.0000
 fsd_1422                              3.0000
 fsd_1425                              3.0000
 fsd_1439                              3.0000
 fsd_1441                              3.0000
 fsd_1451                              3.0000
 fsd_1456                              3.0000
 fsd_1500                              3.0000
 fsd_1502                              3.0000
 fsd_1540                              3.0000
 fsd_1580                              3.0000
 fsd_1583                              3.0000
 fsd_1632                              3.0000
 fsd_1704                              3.0000
 fsd_1740                              3.0000
 fsd_1763                              3.0000
 fsd_1824                              3.0000
 fsd_1863                              3.0000
 fsd_1945                              3.0000
 fsd_1947                              3.0000
 fsd_1965                              3.0000
 fsd_1971                              3.0000
 fsd_1985                              3.0000
 fsd_2008                              3.0000
 fsd_2056                              3.0000
 fsd_2058                              3.0000
 fsd_2069                              3.0000
 fsd_2086                              3.0000
 fsd_2093                              3.0000
 fsd_2105                              3.0000
 fsd_2152                              3.0000
 fsd_2157                              3.0000
 fsd_2177                              3.0000
 fsd_2191                              3.0000
 fsd_2244                              3.0000
 fsd_2257                              3.0000
 fsd_2260                              3.0000
 fsd_2318                              3.0000
 fsd_2352                              3.0000
 fsd_2375                              3.0000
 fsd_2376                              3.0000
 fsd_2385                              3.0000
 fsd_2393                              3.0000
 fsd_2394                              3.0000
 fsd_2395                              3.0000
 fsd_2407                              3.0000
 fsd_2582                              3.0000
 fsd_2626                              3.0000
 fsd_2639                              3.0000
 fsd_2660                              3.0000
 fsd_2692                              3.0000
 fsd_2697                              3.0000
 fsd_2723                              3.0000
 fsd_2735                              3.0000
 fsd_2748                              3.0000
 fsd_2754                              3.0000
 fsd_2764                              3.0000
 fsd_2769                              3.0000
 fsd_2774                              3.0000
 fsd_2779                              3.0000
 fsd_2809                              3.0000
 fsd_2848                              3.0000
 fsd_2864                              3.0000
 fsd_2868                              3.0000
 fsd_2898                              3.0000
 fsd_2937                              3.0000
 fsd_2969                              3.0000
 fsd_2980                              3.0000
 fsd_3027                              3.0000
 fsd_3028                              3.0000
 fsd_3036                              3.0000
 fsd_3090                              3.0000
 fsd_3135                              3.0000
 fsd_3148                              3.0000
 fsd_3180                              3.0000
 fsd_3213                              3.0000
 fsd_3253                              3.0000
 fsd_3254                              3.0000
 fsd_3279                              3.0000
 fsd_3314                              3.0000
 fsd_3324                              3.0000
 fsd_3330                              3.0000
 fsd_3332                              3.0000
 fsd_3387                              3.0000
 fsd_3422                              3.0000
 fsd_3424                              3.0000
 fsd_3430                              3.0000
 fsd_3463                              3.0000
 fsd_3519                              3.0000
 fsd_3570                              3.0000
 fsd_3605                              3.0000
 fsd_3745                              3.0000
 fsd_3757                              3.0000
 fsd_3800                              3.0000
 fsd_3838                              3.0000
 fsd_3891                              3.0000
 fsd_3934                              3.0000
 fsd_3949                              3.0000
 fsd_3951                              3.0000
 fsd_3994                              3.0000
 fsd_4015                              3.0000
 fsd_4057                              3.0000
 fsd_4075                              3.0000
 fsd_4114                              3.0000
 fsd_4118                              3.0000
 fsd_4127                              3.0000
 fsd_4151                              3.0000
 fsd_4164                              3.0000
 fsd_4188                              3.0000
 fsd_4219                              3.0000
 fsd_4245                              3.0000
 fsd_4256                              3.0000
 fsd_4273                              3.0000
 fsd_4281                              3.0000
 fsd_4298                              3.0000
 fsd_4299                              3.0000
 fsd_4326                              3.0000
 fsd_4406                              3.0000
 fsd_4425                              3.0000
 fsd_4445                              3.0000
 fsd_4521                              3.0000
 fsd_4529                              3.0000
 fsd_4543                              3.0000
 fsd_4677                              3.0000
 fsd_4680                              3.0000
 fsd_4695                              3.0000
 fsd_4711                              3.0000
 fsd_4728                              3.0000
 fsd_4748                              3.0000
 fsd_4765                              3.0000
 fsd_4916                              3.0000
 fsd_4928                              3.0000
 fsd_4983                              3.0000
 fsd_5083                              3.0000
 fsd_5145                              3.0000
 fsd_5210                              3.0000
 fsd_5235                              3.0000
 fsd_5320                              3.0000
 fsd_5378                              3.0000
 fsd_5533                              3.0000
 fsd_5590                              3.0000
 fsd_5614                              3.0000
 fsd_5702                              3.0000
 fsd_5830                              3.0000
 fsd_5922                              3.0000
 fsd_6039                              3.0000
 fsd_6049                              3.0000
 fsd_6099                              3.0000
 fsd_6184                              3.0000
 fsd_6220                              3.0000
 fsd_6317                              3.0000
 fsd_6359                              3.0000
 fsd_6381                              3.0000
 fsd_6686                              3.0000
 fsd_6722                              3.0000
 fsd_6737                              3.0000
 fsd_6787                              3.0000
 fsd_6792                              3.0000
 fsd_6799                              3.0000
 fsd_6804                              3.0000
 fsd_6842                              3.0000
 fsd_6863                              3.0000
 fsd_6903                              3.0000
 fsd_6936                              3.0000
 fsd_6995                              3.0000
 fsd_7071                              3.0000
 fsd_7104                              3.0000
 fsd_7140                              3.0000
 fsd_7152                              3.0000
 fsd_7206                              3.0000
 fsd_7209                              3.0000
 fsd_7243                              3.0000
 fsd_7277                              3.0000
 fsd_7292                              3.0000
 fsd_7328                              3.0000
 fsd_7400                              3.0000
 fsd_7407                              3.0000
 fsd_7441                              3.0000
 fsd_7565                              3.0000
 fsd_11888                             3.0000
 fsd_8342                              3.0000
 fsd_8356                              3.0000
 fsd_17877                             3.0000
 fsd_8653                              3.0000
 fsd_17284                             3.0000
 fsd_8791                              3.0000
 fsd_8883                              3.0000
 fsd_8889                              3.0000
 fsd_8957                              3.0000
 fsd_9315                              3.0000
 fsd_18657                             3.0000
 fsd_18662                             3.0000
 fsd_18088                             3.0000
 fsd_9373                              3.0000
 fsd_9192                              3.0000
 fsd_9457                              3.0000
 fsd_9467                              3.0000
 fsd_9507                              3.0000
 fsd_9630                              3.0000
 fsd_18693                             3.0000
 fsd_18707                             3.0000
 fsd_17826                             3.0000
 fsd_10155                             3.0000
 fsd_10440                             3.0000
 fsd_10649                             3.0000
 fsd_10674                             3.0000
 fsd_18429                             3.0000
 fsd_10860                             3.0000
 fsd_17499                             3.0000
 fsd_11550                             3.0000
 fsd_11627                             3.0000
 fsd_11717                             3.0000
 fsd_11689                             3.0000
 fsd_11980                             3.0000
 fsd_11992                             3.0000
 fsd_11699                             3.0000
 fsd_11760                             3.0000
 fsd_12031                             3.0000
 fsd_12063                             3.0000
 fsd_12071                             3.0000
 fsd_12096                             3.0000
 fsd_11739                             3.0000
 fsd_12122                             3.0000
 fsd_12052                             3.0000
 fsd_12223                             3.0000
 fsd_12303                             3.0000
 fsd_12314                             3.0000
 fsd_12362                             3.0000
 fsd_12413                             3.0000
 fsd_12430                             3.0000
 fsd_12515                             3.0000
 fsd_12605                             3.0000
 fsd_12646                             3.0000
 fsd_12683                             3.0000
 fsd_12785                             3.0000
 fsd_12814                             3.0000
 fsd_12835                             3.0000
 fsd_13062                             3.0000
 fsd_13065                             3.0000
 fsd_13197                             3.0000
 fsd_13224                             3.0000
 fsd_13061                             3.0000
 fsd_13327                             3.0000
 fsd_13406                             3.0000
 fsd_13544                             3.0000
 fsd_13606                             3.0000
 fsd_13768                             3.0000
 fsd_13832                             3.0000
 fsd_13870                             3.0000
 fsd_13046                             3.0000
 fsd_18750                             3.0000
 fsd_13337                             3.0000
 fsd_13951                             3.0000
 fsd_18805                             3.0000
 fsd_14089                             3.0000
 fsd_14133                             3.0000
 fsd_14148                             3.0000
 fsd_14316                             3.0000
 fsd_18713                             3.0000
 fsd_14022                             3.0000
 fsd_14008                             3.0000
 fsd_18729                             3.0000
 fsd_14419                             3.0000
 fsd_14420                             3.0000
 fsd_16766                             3.0000
 fsd_14530                             3.0000
 fsd_14313                             3.0000
 fsd_18771                             3.0000
 fsd_16477                             3.0000
 fsd_14694                             3.0000
 fsd_14397                             3.0000
 fsd_14704                             3.0000
 fsd_18619                             3.0000
 fsd_18632                             3.0000
 fsd_14742                             3.0000
 fsd_14930                             3.0000
 fsd_14765                             3.0000
 fsd_15188                             3.0000
 fsd_15204                             3.0000
 fsd_14945                             3.0000
 fsd_15293                             3.0000
 fsd_15359                             3.0000
 fsd_15405                             3.0000
 fsd_15482                             3.0000
 fsd_15562                             3.0000
 fsd_15616                             3.0000
 fsd_15617                             3.0000
 fsd_15644                             3.0000
 fsd_15656                             3.0000
 fsd_15667                             3.0000
 fsd_15704                             3.0000
 fsd_15727                             3.0000
 fsd_15783                             3.0000
 fsd_15833                             3.0000
 fsd_15845                             3.0000
 fsd_15654                             3.0000
 fsd_15889                             3.0000
 fsd_15948                             3.0000
 fsd_15600                             3.0000
 fsd_16020                             3.0000
 fsd_16082                             3.0000
 fsd_16117                             3.0000
 fsd_16006                             3.0000
 fsd_16210                             3.0000
 fsd_16248                             3.0000
 fsd_16322                             3.0000
 fsd_16395                             3.0000
 fsd_16086                             3.0000
 fsd_16162                             3.0000
 fsd_16432                             3.0000
 fsd_16440                             3.0000
 fsd_16455                             3.0000
 fsd_16526                             3.0000
 fsd_16566                             3.0000
 fsd_16596                             3.0000
 fsd_16626                             3.0000
 fsd_16684                             3.0000
 fsd_16701                             3.0000
 fsd_16742                             3.0000
 fsd_16756                             3.0000
 fsd_16897                             3.0000
 fsd_16925                             3.0000
 fsd_16953                             3.0000
 fsd_17026                             3.0000
 fsd_17074                             3.0000
 fsd_17081                             3.0000
 fsd_17092                             3.0000
 fsd_17107                             3.0000
 fsd_17108                             3.0000
 fsd_17121                             3.0000
 fsd_17175                             3.0000
 fsd_17191                             3.0000
 fsd_17241                             3.0000
 fsd_17294                             3.0000
 fsd_17338                             3.0000
 fsd_17376                             3.0000
 fsd_17323                             3.0000
 fsd_17352                             3.0000
 fsd_17404                             3.0000
 fsd_17416                             3.0000
 fsd_17459                             3.0000
 fsd_17587                             3.0000
 fsd_17597                             3.0000
 fsd_17726                             3.0000
 fsd_17769                             3.0000
 fsd_17926                             3.0000
 fsd_18058                             3.0000
 fsd_18062                             3.0000
 fsd_18090                             3.0000
 fsd_18117                             3.0000
 fsd_18130                             3.0000
 fsd_18154                             3.0000
 fsd_18228                             3.0000
 fsd_18235                             3.0000
 fsd_18316                             3.0000
 fsd_18360                             3.0000
 fsd_18528                             3.0000
 fsd_18561                             3.0000
 fsd_18887                             3.0000
 fsd_18924                             3.0000
 fsd_19014                             3.0000
 fsd_19107                             3.0000
 fsd_19229                             3.0000
 fsd_19316                             3.0000
 fsd_19330                             3.0000
 fsd_19343                             3.0000
 fsd_19346                             3.0000
 fsd_19387                             3.0000
 fsd_19462                             3.0000
 fsd_19593                             3.0000
 fsd_19686                             3.0000
 fsd_19711                             3.0000
 fsd_19757                             3.0000
 fsd_19927                             3.0000
 fsd_19808                             3.0000
 fsd_20034                             3.0000
 fsd_20157                             3.0000
 fsd_20269                             3.0000
 fsd_20181                             3.0000
 fsd_20235                             3.0000
 fsd_20211                             3.0000
 fsd_20222                             3.0000
 fsd_20318                             3.0000
 zhnl                                  3.0000
 sblqx                                 3.0000
 wglk                                  3.0000
 ddy                                   3.0000
 zhdlqb                                3.0000
 zhdlqn                                3.0000
 wjhy                                  3.0000
 8                                     3.0000
 9                                     3.0000
 16                                    3.0000
 17                                    3.0000
 18                                    3.0000
 19                                    3.0000
 20                                    3.0000
 23                                    3.0000
 24                                    3.0000
 25                                    3.0000
 26                                    3.0000
 27                                    3.0000
 28                                    3.0000
 29                                    3.0000
 42                                    3.0000
 43                                    3.0000
 44                                    3.0000
 45                                    3.0000
 46                                    3.0000
 47                                    3.0000
 48                                    3.0000
 49                                    3.0000
 50                                    3.0000
 55                                    3.0000
 56                                    3.0000
 57                                    3.0000
 58                                    3.0000
 59                                    3.0000
 60                                    3.0000
 61                                    3.0000
 40                                    3.0000
 41                                    3.0000
 66                                    3.0000
 67                                    3.0000
 68                                    3.0000
 69                                    3.0000
 70                                    3.0000
 71                                    3.0000

[RESERVOIRS]
 sjy1q                                40.7457 
 sjy2q                                36.0067 
 nanjiao                              39.6707 

[TANKS]

[PIPES]
 13                              fsd_19808                       fsd_19593                          2293.1800    1000.0000      90.0000       0.0000 
 16                              fsd_19387                       fsd_19229                          1688.8000    1000.0000      90.0000       0.0000 
 18                              fsd_19229                       fsd_19316                           898.0800    1000.0000      90.0000       0.0000 
 22                              fsd_18887                       fsd_18924                          1647.8100    1400.0000      90.0000       0.0000 
 23                              fsd_18924                       fsd_18805                          2755.4500    1400.0000      90.0000       0.0000 
 24                              fsd_18805                       fsd_18771                          1178.9100    1400.0000      90.0000       0.0000 
 25                              fsd_18771                       fsd_15600                           307.6800    1400.0000      90.0000       0.0000 
 26                              fsd_15600                       nanjiao                             784.9700    1400.0000      90.0000       0.0000 
 27                              fsd_8957                        fsd_17416                          1273.6300     400.0000      90.0000       0.0000 
 28                              fsd_13832                       fsd_17416                           256.6200     600.0000      90.0000       0.0000 
 31                              fsd_16953                       fsd_14704                           505.3000     300.0000      90.0000       0.0000 
 32                              fsd_16953                       fsd_16925                           538.9100     600.0000      90.0000       0.0000 
 37                              fsd_16925                       fsd_17074                           844.6900     600.0000      90.0000       0.0000 
 41                              fsd_17074                       fsd_16477                           824.0400     800.0000      90.0000       0.0000 
 42                              fsd_16477                       fsd_16684                          1276.8800     800.0000      90.0000       0.0000 
 47                              fsd_14694                       fsd_14089                           868.1700     300.0000      90.0000       0.1000 
 48                              fsd_17074                       fsd_14089                           990.6000     400.0000      90.0000       0.0000 
 49                              fsd_14089                       fsd_16455                           814.1600     300.0000      90.0000       0.0000 
 55                              fsd_15845                       fsd_15656                           415.7200     400.0000      90.0000       0.0000 
 56                              fsd_15656                       fsd_15833                           371.1300     300.0000      90.0000       0.0000 
 59                              fsd_15656                       fsd_15667                           434.9600     300.0000      90.0000       0.0000 
 60                              fsd_15654                       fsd_16455                           582.5000     400.0000      90.0000       0.0000 
 61                              fsd_15644                       fsd_15833                           284.4000     300.0000      90.0000       0.0000 
 62                              fsd_15833                       fsd_15783                           646.2700     200.0000      90.0000       0.0000 
 63                              fsd_15783                       fsd_16455                           344.2500     300.0000      90.0000       0.0000 
 67                              fsd_20181                       fsd_20235                          1357.7700     500.0000      90.0000       0.0000 
 68                              fsd_20235                       fsd_20269                            41.3700     400.0000      90.0000       0.0000 
 69                              fsd_20235                       fsd_20211                          3639.7700     500.0000      90.0000       0.0000 
 70                              fsd_20211                       fsd_20222                           771.7200     500.0000      90.0000       0.0000 
 71                              fsd_20222                       fsd_20318                           786.7100     400.0000      90.0000       0.0000 
 76                              fsd_16395                       fsd_16322                          1468.9500     600.0000      90.0000       0.0000 
 78                              fsd_16248                       fsd_16210                          1935.2500     600.0000      90.0000       0.0000 
 79                              fsd_16210                       fsd_16117                          2277.1600     600.0000      90.0000       0.0000 
 80                              fsd_19107                       fsd_19014                          1729.0800     400.0000      90.0000       0.0000 
 88                              fsd_17175                       fsd_15600                           348.1400    1200.0000      90.0000       0.0000 
 89                              fsd_17175                       fsd_13406                          2517.0300    1200.0000      90.0000       0.0000 
 90                              fsd_13406                       fsd_17191                           776.1400    1000.0000      90.0000       0.0000 
 91                              fsd_13406                       fsd_15727                          1034.2300    1000.0000      90.0000       0.0000 
 96                              fsd_17323                       fsd_17338                           545.6000     600.0000      90.0000       0.0000 
 98                              fsd_17338                       fsd_18805                           585.0100     600.0000      90.0000       0.0000 
 101                             fsd_18805                       fsd_17352                          3638.0300     600.0000      90.0000       0.0000 
 58                              fsd_15727                       fsd_17294                           467.0300    1000.0000      90.0000       0.0000 
 105                             fsd_13406                       fsd_17376                           912.5800     400.0000      90.0000       0.0000 
 107                             fsd_17376                       fsd_4425                           1046.9500     400.0000      90.0000       0.0000 
 108                             fsd_4425                        fsd_4298                            401.7100     400.0000      90.0000       0.0000 
 111                             fsd_18561                       fsd_4445                           1017.9000     400.0000      90.0000       0.0000 
 112                             fsd_4445                        fsd_14945                           298.8100     300.0000      90.0000       0.0000 
 113                             fsd_13197                       fsd_4298                            985.4700     300.0000      90.0000       0.0000 