[TITLE]
ÖĞÎÄ

[JUNCTIONS]
;ID              	Elev        	Demand      	Pattern         
  fsd_8           	3	9.809460576	                	;
fsd_3           	3	5.266645955	                	;
 fsd_10          	3	9.222159386	                	;
 fsd_27          	3	28.38783096	                	;
 fsd_45          	3	29.78877604	                	;
 fsd_51          	3	35.20469027	                	;
 fsd_152         	3	28.15232802	                	;
 fsd_190         	3	31.0111367	                	;
 fsd_227         	3	24.89327714	                	;
 fsd_232         	3	29.53535563	                	;
 fsd_259         	3	24.25102378	                	;
 fsd_299         	3	28.50722534	                	;
 fsd_301         	3	27.37798544	                	;
 fsd_302         	3	9.200904898	                	;
 fsd_305         	3	16.94031533	                	;
 fsd_331         	3	19.36730324	                	;
 fsd_338         	3	24.42824942	                	;
 fsd_379         	3	14.75318123	                	;
 fsd_393         	3	35.92377393	                	;
 fsd_400         	3	64.29844141	                	;
 fsd_423         	3	40.64065844	                	;
 fsd_429         	3	32.31196822	                	;
 fsd_456         	3	15.49684727	                	;
 fsd_473         	3	46.7055919	                	;
 fsd_486         	3	28.84755501	                	;
 fsd_517         	3	8.199805472	                	;
 fsd_526         	3	12.35973939	                	;
 fsd_527         	3	6.88946926	                	;
 fsd_539         	3	11.44361422	                	;
 fsd_541         	3	17.36755131	                	;
 fsd_543         	3	47.334783	                	;
 fsd_584         	3	22.07769851	                	;
 fsd_614         	3	36.72042963	                	;
 fsd_633         	3	85.75882219	                	;
 fsd_654         	3	27.09278281	                	;
 fsd_662         	3	3.976740098	                	;
 fsd_664         	3	1.060752807	                	;
 fsd_683         	3	7.076643178	                	;
 fsd_688         	3	12.84268199	                	;
 fsd_711         	3	16.61393677	                	;
 fsd_749         	3	41.28062101	                	;
 fsd_844         	3	3.357636406	                	;
 fsd_866         	3	2.733252012	                	;
 fsd_871         	3	6.888008644	                	;
 fsd_900         	3	11.00118881	                	;
 fsd_948         	3	12.46300189	                	;
 fsd_949         	3	9.031543508	                	;
 fsd_974         	3	7.513566138	                	;
 fsd_981         	3	6.550938128	                	;
 fsd_986         	3	3.631331604	                	;
 fsd_1014        	3	22.16606792	                	;
 fsd_1034        	3	16.58339373	                	;
 fsd_1085        	3	21.11236407	                	;
 fsd_1167        	3	23.78740198	                	;
 fsd_1227        	3	11.54103346	                	;
 fsd_1236        	3	22.83034143	                	;
 fsd_1300        	3	21.48902624	                	;
 fsd_1301        	3	51.70692679	                	;
 fsd_1309        	3	6.124594894	                	;
 fsd_1323        	3	17.64830348	                	;
 fsd_1325        	3	8.752761232	                	;
 fsd_1348        	3	5.658935553	                	;
 fsd_1362        	3	11.81136674	                	;
 fsd_1389        	3	13.96150161	                	;
 fsd_1422        	3	3.692927784	                	;
 fsd_1425        	3	9.891486298	                	;
 fsd_1439        	3	9.008986828	                	;
 fsd_1441        	3	10.65468005	                	;
 fsd_1451        	3	8.780751815	                	;
 fsd_1456        	3	7.532957871	                	;
 fsd_1500        	3	9.375449821	                	;
 fsd_1502        	3	10.14866192	                	;
 fsd_1540        	3	14.73048998	                	;
 fsd_1580        	3	16.74819794	                	;
 fsd_1583        	3	11.60813608	                	;
 fsd_1632        	3	3.970117677	                	;
 fsd_1704        	3	17.78292137	                	;
 fsd_1740        	3	34.62253054	                	;
 fsd_1763        	3	74.01871288	                	;
 fsd_1824        	3	60.18882598	                	;
 fsd_1863        	3	82.86126561	                	;
 fsd_1945        	3	79.51728664	                	;
 fsd_1947        	3	60.99281836	                	;
 fsd_1965        	3	11.06373125	                	;
 fsd_1971        	3	4.935124068	                	;
 fsd_1985        	3	8.982248562	                	;
 fsd_2008        	3	3.959024028	                	;
 fsd_2056        	3	5.353044432	                	;
 fsd_2058        	3	9.805793713	                	;
 fsd_2069        	3	3.950158897	                	;
 fsd_2086        	3	17.03263118	                	;
 fsd_2093        	3	16.13999355	                	;
 fsd_2105        	3	4.093397596	                	;
 fsd_2152        	3	9.289947435	                	;
 fsd_2157        	3	16.28537164	                	;
 fsd_2177        	3	10.67643554	                	;
 fsd_2191        	3	5.811967087	                	;
 fsd_2244        	3	10.80265449	                	;
 fsd_2257        	3	4.906520415	                	;
 fsd_2260        	3	8.635081317	                	;
 fsd_2318        	3	5.802854265	                	;
 fsd_2352        	3	13.01740572	                	;
 fsd_2375        	3	10.73037233	                	;
 fsd_2376        	3	11.67126453	                	;
 fsd_2385        	3	6.462036023	                	;
 fsd_2393        	3	39.8619278	                	;
 fsd_2394        	3	4.997902625	                	;
 fsd_2395        	3	4.845898642	                	;
 fsd_2407        	3	18.77379032	                	;
 fsd_2582        	3	10.64343479	                	;
 fsd_2626        	3	6.310646724	                	;
 fsd_2639        	3	7.161899748	                	;
 fsd_2660        	3	3.773916599	                	;
 fsd_2692        	3	5.513115909	                	;
 fsd_2697        	3	8.477727048	                	;
 fsd_2723        	3	5.036768892	                	;
 fsd_2735        	3	5.421300663	                	;
 fsd_2748        	3	4.214690974	                	;
 fsd_2754        	3	3.861924931	                	;
 fsd_2764        	3	7.194898699	                	;
 fsd_2769        	3	14.26887299	                	;
 fsd_2774        	3	6.812522874	                	;
 fsd_2779        	3	7.029171857	                	;
 fsd_2809        	3	12.38675365	                	;
 fsd_2848        	3	9.905598316	                	;
 fsd_2864        	3	7.991997649	                	;
 fsd_2868        	3	9.454804584	                	;
 fsd_2898        	3	3.316577915	                	;
 fsd_2937        	3	6.508321563	                	;
 fsd_2969        	3	23.35151147	                	;
 fsd_2980        	3	10.41904325	                	;
 fsd_3027        	3	6.012199818	                	;
 fsd_3028        	3	7.296531637	                	;
 fsd_3036        	3	4.012173547	                	;
 fsd_3090        	3	5.575885059	                	;
 fsd_3135        	3	5.701601825	                	;
 fsd_3148        	3	8.212552148	                	;
 fsd_3180        	3	4.845696572	                	;
 fsd_3213        	3	6.286129926	                	;
 fsd_3253        	3	3.553613048	                	;
 fsd_3254        	3	3.878332983	                	;
 fsd_3279        	3	9.909758951	                	;
 fsd_3314        	3	27.46554468	                	;
 fsd_3324        	3	22.30565425	                	;
 fsd_3330        	3	14.0596946	                	;
 fsd_3332        	3	22.03309312	                	;
 fsd_3387        	3	21.44315103	                	;
 fsd_3422        	3	4.122377737	                	;
 fsd_3424        	3	5.65346195	                	;
 fsd_3430        	3	5.815800516	                	;
 fsd_3463        	3	7.550497052	                	;
 fsd_3519        	3	3.468766893	                	;
 fsd_3570        	3	5.593190636	                	;
 fsd_3605        	3	2.478245569	                	;
 fsd_3745        	3	5.45363119	                	;
 fsd_3757        	3	6.509215133	                	;
 fsd_3800        	3	4.365215925	                	;
 fsd_3838        	3	4.920639641	                	;
 fsd_3891        	3	54.46491242	                	;
 fsd_3934        	3	7.908377524	                	;
 fsd_3949        	3	5.253289921	                	;
 fsd_3951        	3	7.635500543	                	;
 fsd_3994        	3	4.843200742	                	;
 fsd_4015        	3	3.846893008	                	;
 fsd_4057        	3	5.857878571	                	;
 fsd_4075        	3	2.452246515	                	;
 fsd_4114        	3	3.923444816	                	;
 fsd_4118        	3	4.252622637	                	;
 fsd_4127        	3	10.64731719	                	;
 fsd_4151        	3	13.14781373	                	;
 fsd_4164        	3	69.06759472	                	;
 fsd_4188        	3	5.964664431	                	;
 fsd_4219        	3	5.817765353	                	;
 fsd_4245        	3	4.890795756	                	;
 fsd_4256        	3	3.818627225	                	;
 fsd_4273        	3	10.09753042	                	;
 fsd_4281        	3	18.46053249	                	;
 fsd_4298        	3	16.56178813	                	;
 fsd_4299        	3	36.21733223	                	;
 fsd_4326        	3	47.61013779	                	;
 fsd_4406        	3	62.27981823	                	;
 fsd_4425        	3	37.75450321	                	;
 fsd_4445        	3	36.8686474	                	;
 fsd_4521        	3	6.053680985	                	;
 fsd_4529        	3	5.821216211	                	;
 fsd_4543        	3	7.876383096	                	;
 fsd_4677        	3	5.135298822	                	;
 fsd_4680        	3	3.786714922	                	;
 fsd_4695        	3	30.54770082	                	;
 fsd_4711        	3	25.25892009	                	;
 fsd_4728        	3	29.57981769	                	;
 fsd_4748        	3	78.35989318	                	;
 fsd_4765        	3	88.17842419	                	;
 fsd_4916        	3	10.89307082	                	;
 fsd_4928        	3	15.82712542	                	;
 fsd_4983        	3	33.95221266	                	;
 fsd_5083        	3	12.84036479	                	;
 fsd_5145        	3	27.62021863	                	;
 fsd_5210        	3	14.97032923	                	;
 fsd_5235        	3	15.38086597	                	;
 fsd_5320        	3	19.67010708	                	;
 fsd_5378        	3	5.084036752	                	;
 fsd_5533        	3	30.58427896	                	;
 fsd_5590        	3	16.37492218	                	;
 fsd_5614        	3	57.68240669	                	;
 fsd_5702        	3	32.0168266	                	;
 fsd_5830        	3	7.229757179	                	;
 fsd_5922        	3	42.11914544	                	;
 fsd_6039        	3	31.58301415	                	;
 fsd_6049        	3	16.33839255	                	;
 fsd_6099        	3	42.10847859	                	;
 fsd_6184        	3	17.81593159	                	;
 fsd_6220        	3	41.08626331	                	;
 fsd_6317        	3	52.10442316	                	;
 fsd_6359        	3	57.49191965	                	;
 fsd_6381        	3	6.556313286	                	;
 fsd_6686        	3	54.92586483	                	;
 fsd_6722        	3	68.29352937	                	;
 fsd_6737        	3	9.007729597	                	;
 fsd_6787        	3	5.540215754	                	;
 fsd_6792        	3	7.813915335	                	;
 fsd_6799        	3	14.28054393	                	;
 fsd_6804        	3	3.565742035	                	;
 fsd_6842        	3	4.804649974	                	;
 fsd_6863        	3	6.415020924	                	;
 fsd_6903        	3	11.03817246	                	;
 fsd_6936        	3	4.075121826	                	;
 fsd_6995        	3	24.25431265	                	;
 fsd_7071        	3	6.37277927	                	;
 fsd_7104        	3	5.784853843	                	;
 fsd_7140        	3	2.759022255	                	;
 fsd_7152        	3	4.104819256	                	;
 fsd_7206        	3	3.494315284	                	;
 fsd_7209        	3	10.82518427	                	;
 fsd_7243        	3	184.3577088	                	;
 fsd_7277        	3	12.06404466	                	;
 fsd_7292        	3	16.84706644	                	;
 fsd_7328        	3	2.603035345	                	;
 fsd_7400        	3	21.87416712	                	;
 fsd_7407        	3	12.76266391	                	;
 fsd_7441        	3	8.622946802	                	;
 fsd_7565        	3	49.83369749	                	;
 fsd_11888       	3	5.654503199	                	;
 fsd_8342        	3	313.1205013	                	;
 fsd_8356        	3	48.22885828	                	;
 fsd_17877       	3	9.95491999	                	;
 fsd_8653        	3	16.3024567	                	;
 fsd_17284       	3	15.67322115	                	;
 fsd_8791        	3	5.341847347	                	;
 fsd_8883        	3	8.578553166	                	;
 fsd_8889        	3	39.05976204	                	;
 fsd_8957        	3	361.3338285	                	;
 fsd_9315        	3	3.450914993	                	;
 fsd_18657       	3	21.20873693	                	;
 fsd_18662       	3	39.62241667	                	;
 fsd_18088       	3	15.72486999	                	;
 fsd_9373        	3	75.71798065	                	;
 fsd_9192        	3	7.335179624	                	;
 fsd_9457        	3	5.677948511	                	;
 fsd_9467        	3	6.699613658	                	;
 fsd_9507        	3	6.34142762	                	;
 fsd_9630        	3	63.36875275	                	;
 fsd_18693       	3	6.528962095	                	;
 fsd_18707       	3	10.48802439	                	;
 fsd_17826       	3	14.9133641	                	;
 fsd_10155       	3	15.54594085	                	;
 fsd_10440       	3	30.47186014	                	;
 fsd_10649       	3	33.94272148	                	;
 fsd_10674       	3	56.44898773	                	;
 fsd_18429       	3	2.481019869	                	;
 fsd_10860       	3	14.09528711	                	;
 fsd_17499       	3	85.52859091	                	;
 fsd_11550       	3	13.89083195	                	;
 fsd_11627       	3	42.24134731	                	;
 fsd_11717       	3	6.300235666	                	;
 fsd_11689       	3	21.15668171	                	;
 fsd_11980       	3	36.07471298	                	;
 fsd_11992       	3	5.639487881	                	;
 fsd_11699       	3	16.5535097	                	;
 fsd_11760       	3	33.98667724	                	;
 fsd_12031       	3	60.61155912	                	;
 fsd_12063       	3	15.54021685	                	;
 fsd_12071       	3	13.32278665	                	;
 fsd_12096       	3	21.16963516	                	;
 fsd_11739       	3	4.449318812	                	;
 fsd_12122       	3	12.71525676	                	;
 fsd_12052       	3	19.93994267	                	;
 fsd_12223       	3	5.570154705	                	;
 fsd_12303       	3	29.59827635	                	;
 fsd_12314       	3	13.15829238	                	;
 fsd_12362       	3	32.18911429	                	;
 fsd_12413       	3	106.7852618	                	;
 fsd_12430       	3	40.27682626	                	;
 fsd_12515       	3	5.194836431	                	;
 fsd_12605       	3	48.56772823	                	;
 fsd_12646       	3	5.104175446	                	;
 fsd_12683       	3	4.322942853	                	;
 fsd_12785       	3	7.201794253	                	;
 fsd_12814       	3	5.289460001	                	;
 fsd_12835       	3	10.53508913	                	;
 fsd_13062       	3	13.17061195	                	;
 fsd_13065       	3	10.45152676	                	;
 fsd_13197       	3	28.80358538	                	;
 fsd_13224       	3	28.99633308	                	;
 fsd_13061       	3	9.19339959	                	;
 fsd_13327       	3	6.403306951	                	;
 fsd_13406       	3	123.7987691	                	;
 fsd_13544       	3	86.18305674	                	;
 fsd_13606       	3	3.638986734	                	;
 fsd_13768       	3	9.886293455	                	;
 fsd_13832       	3	70.1021766	                	;
 fsd_13870       	3	6.003849997	                	;
 fsd_13046       	3	10.90124049	                	;
 fsd_18750       	3	22.68758715	                	;
 fsd_13337       	3	11.3203745	                	;
 fsd_13951       	3	56.03624543	                	;
 fsd_18805       	3	157.2026158	                	;
 fsd_14089       	3	8.252368224	                	;
 fsd_14133       	3	17.81234893	                	;
 fsd_14148       	3	67.64943044	                	;
 fsd_14316       	3	55.80708972	                	;
 fsd_18713       	3	21.79144288	                	;
 fsd_14022       	3	38.66389976	                	;
 fsd_14008       	3	5.602362908	                	;
 fsd_18729       	3	52.22643849	                	;
 fsd_14419       	3	49.71474919	                	;
 fsd_14420       	3	81.36911192	                	;
 fsd_16766       	3	10.37639319	                	;
 fsd_14530       	3	119.0459571	                	;
 fsd_14313       	3	25.04083003	                	;
 fsd_18771       	3	59.17066734	                	;
 fsd_16477       	3	6.475074718	                	;
 fsd_14694       	3	5.846347405	                	;
 fsd_14397       	3	8.877511997	                	;
 fsd_14704       	3	103.1393131	                	;
 fsd_18619       	3	5.143125354	                	;
 fsd_18632       	3	6.10513661	                	;
 fsd_14742       	3	62.16962557	                	;
 fsd_14930       	3	91.23403561	                	;
 fsd_14765       	3	67.87385421	                	;
 fsd_15188       	3	7.666870781	                	;
 fsd_15204       	3	67.5314975	                	;
 fsd_14945       	3	6.70395757	                	;
 fsd_15293       	3	43.98011642	                	;
 fsd_15359       	3	10.8220869	                	;
 fsd_15405       	3	78.4957316	                	;
 fsd_15482       	3	129.5537551	                	;
 fsd_15562       	3	3.635786564	                	;
 fsd_15616       	3	7.284039143	                	;
 fsd_15617       	3	10.3009409	                	;
 fsd_15644       	3	32.86262145	                	;
 fsd_15656       	3	4.867946064	                	;
 fsd_15667       	3	19.97719821	                	;
 fsd_15704       	3	55.34685382	                	;
 fsd_15727       	3	49.22495551	                	;
 fsd_15783       	3	4.270969784	                	;
 fsd_15833       	3	62.72786272	                	;
 fsd_15845       	3	7.805153843	                	;
 fsd_15654       	3	10.61997643	                	;
 fsd_15889       	3	32.88019922	                	;
 fsd_15948       	3	14.85383963	                	;
 fsd_15600       	3	28.76496755	                	;
 fsd_16020       	3	20.29108394	                	;
 fsd_16082       	3	49.018344	                	;
 fsd_16117       	3	6.32818728	                	;
 fsd_16006       	3	21.16726959	                	;
 fsd_16210       	3	7.212188811	                	;
 fsd_16248       	3	5.990009303	                	;
 fsd_16322       	3	4.44732749	                	;
 fsd_16395       	3	4.97888114	                	;
 fsd_16086       	3	98.79320448	                	;
 fsd_16162       	3	4.493794522	                	;
 fsd_16432       	3	16.56266386	                	;
 fsd_16440       	3	19.5909743	                	;
 fsd_16455       	3	5.4092586	                	;
 fsd_16526       	3	18.8294369	                	;
 fsd_16566       	3	4.404530107	                	;
 fsd_16596       	3	5.643658958	                	;
 fsd_16626       	3	4.480866661	                	;
 fsd_16684       	3	4.611939912	                	;
 fsd_16701       	3	96.44826279	                	;
 fsd_16742       	3	90.12461657	                	;
 fsd_16756       	3	30.09454456	                	;
 fsd_16897       	3	136.1464393	                	;
 fsd_16925       	3	33.44896974	                	;
 fsd_16953       	3	72.8485507	                	;
 fsd_17026       	3	94.66511281	                	;
 fsd_17074       	3	36.36344112	                	;
 fsd_17081       	3	87.34999599	                	;
 fsd_17092       	3	90.61025219	                	;
 fsd_17107       	3	21.76295984	                	;
 fsd_17108       	3	5.964385646	                	;
 fsd_17121       	3	56.76667154	                	;
 fsd_17175       	3	96.15151899	                	;
 fsd_17191       	3	68.1861445	                	;
 fsd_17241       	3	7.061412177	                	;
 fsd_17294       	3	45.234531	                	;
 fsd_17338       	3	26.60004378	                	;
 fsd_17376       	3	27.67134565	                	;
 fsd_17323       	3	51.05349506	                	;
 fsd_17352       	3	137.9113509	                	;
 fsd_17404       	3	107.9204939	                	;
 fsd_17416       	3	53.54265144	                	;
 fsd_17459       	3	102.195154	                	;
 fsd_17587       	3	18.3693545	                	;
 fsd_17597       	3	35.74315681	                	;
 fsd_17726       	3	138.9653958	                	;
 fsd_17769       	3	39.97380014	                	;
 fsd_17926       	3	66.73674148	                	;
 fsd_18058       	3	108.221142	                	;
 fsd_18062       	3	53.5662741	                	;
 fsd_18090       	3	4.135271314	                	;
 fsd_18117       	3	5.764284864	                	;
 fsd_18130       	3	3.58373155	                	;
 fsd_18154       	3	6.894241634	                	;
 fsd_18228       	3	7.378591736	                	;
 fsd_18235       	3	4.697980521	                	;
 fsd_18316       	3	5.97995516	                	;
 fsd_18360       	3	4.465209202	                	;
 fsd_18528       	3	36.81270031	                	;
 fsd_18561       	3	17.96158028	                	;
 fsd_18887       	3	75.91985508	                	;
 fsd_18924       	3	170.2634026	                	;
 fsd_19014       	3	65.67071305	                	;
 fsd_19107       	3	203.8094724	                	;
 fsd_19229       	3	28.18635656	                	;
 fsd_19316       	3	94.33928181	                	;
 fsd_19330       	3	33.72406608	                	;
 fsd_19343       	3	21.04348817	                	;
 fsd_19346       	3	20.39697897	                	;
 fsd_19387       	3	121.2721807	                	;
 fsd_19462       	3	11.10465855	                	;
 fsd_19593       	3	104.7366014	                	;
 fsd_19686       	3	71.81265439	                	;
 fsd_19711       	3	78.49702778	                	;
 fsd_19757       	3	23.47727445	                	;
 fsd_19927       	3	14.06556537	                	;
 fsd_19808       	3	165.1769525	                	;
 fsd_20034       	3	158.1357042	                	;
 fsd_20157       	3	175.7794952	                	;
 fsd_20269       	3	78.77563387	                	;
 fsd_20181       	3	147.8067366	                	;
 fsd_20235       	3	130.0597214	                	;
 fsd_20211       	3	84.8244383	                	;
 fsd_20222       	3	58.29044031	                	;
 fsd_20318       	3	96.89206504	                	;
 zhnl            	3	2.397589587	                	;
 sblqx           	3	117.1227265	                	;
 wglk            	3	39.23568089	                	;
 ddy             	3	36.09658895	                	;
 zhdlqb          	3	44.42125446	                	;
 zhdlqn          	3	47.1243588	                	;
 wjhy            	3	20.60776799	                	;
8	3	61.19800845	                	;
9	3	82.48952028	                	;
16	3	51.47095103	                	;
17	3	211.2273043	                	;
18	3	74.99909782	                	;
19	3	4.363327614	                	;
20	3	7.73228717	                	;
23	3	59.83596479	                	;
24	3	3.399560639	                	;
25	3	4.244669759	                	;
26	3	4.135359564	                	;
27	3	3.19728297	                	;
28	3	3.199859538	                	;
29	3	8.05703618	                	;
42	3	169.5916785	                	;
43	3	75.10098894	                	;
44	3	192.6365503	                	;
45	3	91.79059797	                	;
46	3	171.6449743	                	;
47	3	148.5724372	                	;
48	3	88.51093978	                	;
49	3	144.4049573	                	;
50	3	11.30537737	                	;
55	3	12.24339767	                	;
56	3	75.67712839	                	;
57	3	82.52026466	                	;
58	3	34.12994503	                	;
59	3	58.54479154	                	;
60	3	19.72056436	                	;
61	3	15.50781051	                	;
40	3	163.0903127	                	;
41	3	109.3179301	                	;
66	3	46.20675254	                	;
67	3	10.70153235	                	;
68	3	54.65971624	                	;
69	3	418.4293581	                	;
70	3	121.6813635	                	;
71	3	131.1536679	                	;     

[RESERVOIRS]
;ID              	Head        	Pattern         
 sjy1q           	40.74569    	                	;
 sjy2q           	36.00669    	                	;
 nanjiao         	39.67069    	                	;

[TANKS]
;ID              	Elevation   	InitLevel   	MinLevel    	MaxLevel    	Diameter    	MinVol      	VolCurve

[PIPES]

  
;ID              	Node1           	Node2           	Length      	Diameter    	Roughness   	MinorLoss   	Status
  
13              	fsd_19808       	fsd_19593       	2293.18     	1000        	90.000      	0           	Open  	;
 16              	fsd_19387       	fsd_19229       	1688.80     	1000        	90.000      	0           	Open  	;
 18              	fsd_19229       	fsd_19316       	898.08      	1000        	90.000      	0           	Open  	;
 22              	fsd_18887       	fsd_18924       	1647.81     	1400        	90.000      	0           	Open  	;
 23              	fsd_18924       	fsd_18805       	2755.45     	1400        	90.000      	0           	Open  	;
 24              	fsd_18805       	fsd_18771       	1178.91     	1400        	90.000      	0           	Open  	;
 25              	fsd_18771       	fsd_15600       	307.68      	1400        	90.000      	0           	Open  	;
 26              	fsd_15600       	nanjiao         	784.97      	1400        	90.000      	0           	Open  	;
 27              	fsd_8957        	fsd_17416       	1273.63     	400         	90.000      	0           	Open  	;
 28              	fsd_13832       	fsd_17416       	256.62      	600         	90.000      	0           	Open  	;
 31              	fsd_16953       	fsd_14704       	505.30      	300         	90.000      	0           	Open  	;
 32              	fsd_16953       	fsd_16925       	538.91      	600         	90.000      	0           	Open  	;
 37              	fsd_16925       	fsd_17074       	844.69      	600         	90.000      	0           	Open  	;
 41              	fsd_17074       	fsd_16477       	824.04      	800         	90.000      	0           	Open  	;
 42              	fsd_16477       	fsd_16684       	1276.88     	800         	90.000      	0           	Open  	;
 47              	fsd_14694       	fsd_14089       	868.17      	300         	90.000      	0.1         	Open  	;
 48              	fsd_17074       	fsd_14089       	990.60      	400         	90.000      	0           	Open  	;
 49              	fsd_14089       	fsd_16455       	814.16      	300         	90.000      	0           	Open  	;
 55              	fsd_15845       	fsd_15656       	415.72      	400         	90.000      	0           	Open  	;
 56              	fsd_15656       	fsd_15833       	371.13      	300         	90.000      	0           	Open  	;
 59              	fsd_15656       	fsd_15667       	434.96      	300         	90.000      	0           	Open  	;
 60              	fsd_15654       	fsd_16455       	582.50      	400         	90.000      	0           	Open  	;
 61              	fsd_15644       	fsd_15833       	284.40      	300         	90.000      	0           	Open  	;
 62              	fsd_15833       	fsd_15783       	646.27      	200         	90.000      	0           	Open  	;
 63              	fsd_15783       	fsd_16455       	344.25      	300         	90.000      	0           	Open  	;
 67              	fsd_20181       	fsd_20235       	1357.77     	500         	90.000      	0           	Open  	;
 68              	fsd_20235       	fsd_20269       	41.37       	400         	90.000      	0           	Open  	;
 69              	fsd_20235       	fsd_20211       	3639.77     	500         	90.000      	0           	Open  	;
 70              	fsd_20211       	fsd_20222       	771.72      	500         	90.000      	0           	Open  	;
 71              	fsd_20222       	fsd_20318       	786.71      	400         	90.000      	0           	Open  	;
 76              	fsd_16395       	fsd_16322       	1468.95     	600         	90.000      	0           	Open  	;
 78              	fsd_16248       	fsd_16210       	1935.25     	600         	90.000      	0           	Open  	;
 79              	fsd_16210       	fsd_16117       	2277.16     	600         	90.000      	0           	Open  	;
 80              	fsd_19107       	fsd_19014       	1729.08     	400         	90.000      	0           	Open  	;
 88              	fsd_17175       	fsd_15600       	348.14      	1200        	90.000      	0           	Open  	;
 89              	fsd_17175       	fsd_13406       	2517.03     	1200        	90.000      	0           	Open  	;
 90              	fsd_13406       	fsd_17191       	776.14      	1000        	90.000      	0           	Open  	;
 91              	fsd_13406       	fsd_15727       	1034.23     	1000        	90.000      	0           	Open  	;
 96              	fsd_17323       	fsd_17338       	545.60      	600         	90.000      	0           	Open  	;
 98              	fsd_17338       	fsd_18805       	585.01      	600         	90.000      	0           	Open  	;
 101             	fsd_18805       	fsd_17352       	3638.03     	600         	90.000      	0           	Open  	;
 58              	fsd_15727       	fsd_17294       	467.03      	1000        	90.000      	0           	Open  	;
 105             	fsd_13406       	fsd_17376       	912.58      	400         	90.000      	0           	Open  	;
 107             	fsd_17376       	fsd_4425        	1046.95     	400         	90.000      	0           	Open  	;